<?xml version='1.0' encoding='utf-8'?>
<routes xmlns:xsi="http://www.w3.org/2001/XMLSchema-instance" xsi:noNamespaceSchemaLocation="http://sumo.dlr.de/xsd/routes_file.xsd">
    

<vTypeDistribution id="heterogeneous_traffic_ns">
    <vType id="Car_NS" accel="3.28" decel="7.5" length="4.0" width="1.6" height="1.5" maxSpeed="33.33" minGap="0.38" sigma="0.1" tau="1.1" vClass="passenger" guiShape="passenger" probability="0.10" color="1,1,0" />

</vTypeDistribution>

<vTypeDistribution id="heterogeneous_traffic_nw">
    <vType id="Car_NW" accel="3.28" decel="7.5" length="4.0" width="1.6" height="1.5" maxSpeed="33.33" minGap="0.38" sigma="0.1" tau="1.1" vClass="passenger" guiShape="passenger" probability="0.08" color="1,1,0" />
   
</vTypeDistribution>

<vTypeDistribution id="heterogeneous_traffic_ne">
    <vType id="Car_NE" accel="3.28" decel="7.5" length="4.0" width="1.6" height="1.5" maxSpeed="33.33" minGap="0.38" sigma="0.1" tau="1.1" vClass="passenger" guiShape="passenger" probability="0.21" color="1,1,0" />
    
</vTypeDistribution>

<vTypeDistribution id="heterogeneous_traffic_sw">
    <vType id="Car_SW" accel="3.28" decel="7.5" length="4.0" width="1.6" height="1.5" maxSpeed="33.33" minGap="0.38" sigma="0.1" tau="1.1" vClass="passenger" guiShape="passenger" probability="0.08" color="1,1,0" />
    
</vTypeDistribution>

    


    <route id="route_ns" edges="n_t t_s" />
    <route id="route_nw" edges="n_t t_w" />
    <route id="route_ne" edges="n_t t_e" />
    <route id="route_we" edges="w_t t_e" />
    <route id="route_wn" edges="w_t t_n" />
    <route id="route_ws" edges="w_t t_s" />
    <route id="route_ew" edges="e_t t_w" />
    <route id="route_en" edges="e_t t_n" />
    <route id="route_es" edges="e_t t_s" />
    <route id="route_sn" edges="s_t t_n" />
    <route id="route_se" edges="s_t t_e" />
    <route id="route_sw" edges="s_t t_w" />

    
    <flow id="flow_WS_1_1" type="heterogeneous_traffic_nw" route="route_we" begin="0" end="145" vehsPerHour="436.13699999999994" />
    <flow id="flow_WR_1_1" type="heterogeneous_traffic_nw" route="route_wn" begin="0" end="145" vehsPerHour="156.351" />
    <flow id="flow_WL_1_1" type="heterogeneous_traffic_nw" route="route_ws" begin="0" end="145" vehsPerHour="40.512" />
    <flow id="flow_NS_1_1" type="heterogeneous_traffic_ns" route="route_ns" begin="0" end="145" vehsPerHour="121.13250000000001" />
    <flow id="flow_NR_1_1" type="heterogeneous_traffic_ns" route="route_nw" begin="0" end="145" vehsPerHour="54.4445" />
    <flow id="flow_NL_1_1" type="heterogeneous_traffic_ns" route="route_ne" begin="0" end="145" vehsPerHour="84.923" />
    <flow id="flow_ES_1_1" type="heterogeneous_traffic_ne" route="route_ew" begin="0" end="145" vehsPerHour="356.903" />
    <flow id="flow_ER_1_1" type="heterogeneous_traffic_ne" route="route_es" begin="0" end="145" vehsPerHour="21.438" />
    <flow id="flow_EL_1_1" type="heterogeneous_traffic_ne" route="route_en" begin="0" end="145" vehsPerHour="18.659" />
    <flow id="flow_SS_1_1" type="heterogeneous_traffic_sw" route="route_sn" begin="0" end="145" vehsPerHour="164.794" />
    <flow id="flow_SR_1_1" type="heterogeneous_traffic_sw" route="route_se" begin="0" end="145" vehsPerHour="149.149" />
    <flow id="flow_SL_1_1" type="heterogeneous_traffic_sw" route="route_sw" begin="0" end="145" vehsPerHour="207.55700000000002" />
    <flow id="flow_WS_1_2" type="heterogeneous_traffic_nw" route="route_we" begin="145" end="290" vehsPerHour="376.19399999999996" />
    <flow id="flow_WR_1_2" type="heterogeneous_traffic_nw" route="route_wn" begin="145" end="290" vehsPerHour="134.862" />
    <flow id="flow_WL_1_2" type="heterogeneous_traffic_nw" route="route_ws" begin="145" end="290" vehsPerHour="34.944" />
    <flow id="flow_NS_1_2" type="heterogeneous_traffic_ns" route="route_ns" begin="145" end="290" vehsPerHour="144.38250000000002" />
    <flow id="flow_NR_1_2" type="heterogeneous_traffic_ns" route="route_nw" begin="145" end="290" vehsPerHour="64.8945" />
    <flow id="flow_NL_1_2" type="heterogeneous_traffic_ns" route="route_ne" begin="145" end="290" vehsPerHour="101.223" />
    <flow id="flow_ES_1_2" type="heterogeneous_traffic_ne" route="route_ew" begin="145" end="290" vehsPerHour="490.854" />
    <flow id="flow_ER_1_2" type="heterogeneous_traffic_ne" route="route_es" begin="145" end="290" vehsPerHour="29.483999999999998" />
    <flow id="flow_EL_1_2" type="heterogeneous_traffic_ne" route="route_en" begin="145" end="290" vehsPerHour="25.662" />
    <flow id="flow_SS_1_2" type="heterogeneous_traffic_sw" route="route_sn" begin="145" end="290" vehsPerHour="94.168" />
    <flow id="flow_SR_1_2" type="heterogeneous_traffic_sw" route="route_se" begin="145" end="290" vehsPerHour="85.228" />
    <flow id="flow_SL_1_2" type="heterogeneous_traffic_sw" route="route_sw" begin="145" end="290" vehsPerHour="118.604" />
    <flow id="flow_WS_1_3" type="heterogeneous_traffic_nw" route="route_we" begin="290" end="435" vehsPerHour="299.3705" />
    <flow id="flow_WR_1_3" type="heterogeneous_traffic_nw" route="route_wn" begin="290" end="435" vehsPerHour="107.3215" />
    <flow id="flow_WL_1_3" type="heterogeneous_traffic_nw" route="route_ws" begin="290" end="435" vehsPerHour="27.808" />
    <flow id="flow_NS_1_3" type="heterogeneous_traffic_ns" route="route_ns" begin="290" end="435" vehsPerHour="98.11500000000001" />
    <flow id="flow_NR_1_3" type="heterogeneous_traffic_ns" route="route_nw" begin="290" end="435" vehsPerHour="44.099" />
    <flow id="flow_NL_1_3" type="heterogeneous_traffic_ns" route="route_ne" begin="290" end="435" vehsPerHour="68.786" />
    <flow id="flow_ES_1_3" type="heterogeneous_traffic_ne" route="route_ew" begin="290" end="435" vehsPerHour="323.64" />
    <flow id="flow_ER_1_3" type="heterogeneous_traffic_ne" route="route_es" begin="290" end="435" vehsPerHour="19.44" />
    <flow id="flow_EL_1_3" type="heterogeneous_traffic_ne" route="route_en" begin="290" end="435" vehsPerHour="16.92" />
    <flow id="flow_SS_1_3" type="heterogeneous_traffic_sw" route="route_sn" begin="290" end="435" vehsPerHour="164.794" />
    <flow id="flow_SR_1_3" type="heterogeneous_traffic_sw" route="route_se" begin="290" end="435" vehsPerHour="149.149" />
    <flow id="flow_SL_1_3" type="heterogeneous_traffic_sw" route="route_sw" begin="290" end="435" vehsPerHour="207.55700000000002" />
    <flow id="flow_WS_1_4" type="heterogeneous_traffic_nw" route="route_we" begin="435" end="580" vehsPerHour="188.09699999999998" />
    <flow id="flow_WR_1_4" type="heterogeneous_traffic_nw" route="route_wn" begin="435" end="580" vehsPerHour="67.431" />
    <flow id="flow_WL_1_4" type="heterogeneous_traffic_nw" route="route_ws" begin="435" end="580" vehsPerHour="17.472" />
    <flow id="flow_NS_1_4" type="heterogeneous_traffic_ns" route="route_ns" begin="435" end="580" vehsPerHour="103.92750000000001" />
    <flow id="flow_NR_1_4" type="heterogeneous_traffic_ns" route="route_nw" begin="435" end="580" vehsPerHour="46.7115" />
    <flow id="flow_NL_1_4" type="heterogeneous_traffic_ns" route="route_ne" begin="435" end="580" vehsPerHour="72.861" />
    <flow id="flow_ES_1_4" type="heterogeneous_traffic_ne" route="route_ew" begin="435" end="580" vehsPerHour="457.591" />
    <flow id="flow_ER_1_4" type="heterogeneous_traffic_ne" route="route_es" begin="435" end="580" vehsPerHour="27.486" />
    <flow id="flow_EL_1_4" type="heterogeneous_traffic_ne" route="route_en" begin="435" end="580" vehsPerHour="23.923000000000002" />
    <flow id="flow_SS_1_4" type="heterogeneous_traffic_sw" route="route_sn" begin="435" end="580" vehsPerHour="145.202" />
    <flow id="flow_SR_1_4" type="heterogeneous_traffic_sw" route="route_se" begin="435" end="580" vehsPerHour="131.417" />
    <flow id="flow_SL_1_4" type="heterogeneous_traffic_sw" route="route_sw" begin="435" end="580" vehsPerHour="182.881" />
    <flow id="flow_WS_1_5" type="heterogeneous_traffic_nw" route="route_we" begin="580" end="725" vehsPerHour="402.0315" />
    <flow id="flow_WR_1_5" type="heterogeneous_traffic_nw" route="route_wn" begin="580" end="725" vehsPerHour="144.1245" />
    <flow id="flow_WL_1_5" type="heterogeneous_traffic_nw" route="route_ws" begin="580" end="725" vehsPerHour="37.344" />
    <flow id="flow_NS_1_5" type="heterogeneous_traffic_ns" route="route_ns" begin="580" end="725" vehsPerHour="109.74000000000001" />
    <flow id="flow_NR_1_5" type="heterogeneous_traffic_ns" route="route_nw" begin="580" end="725" vehsPerHour="49.324" />
    <flow id="flow_NL_1_5" type="heterogeneous_traffic_ns" route="route_ne" begin="580" end="725" vehsPerHour="76.936" />
    <flow id="flow_ES_1_5" type="heterogeneous_traffic_ne" route="route_ew" begin="580" end="725" vehsPerHour="490.854" />
    <flow id="flow_ER_1_5" type="heterogeneous_traffic_ne" route="route_es" begin="580" end="725" vehsPerHour="29.483999999999998" />
    <flow id="flow_EL_1_5" type="heterogeneous_traffic_ne" route="route_en" begin="580" end="725" vehsPerHour="25.662" />
    <flow id="flow_SS_1_5" type="heterogeneous_traffic_sw" route="route_sn" begin="580" end="725" vehsPerHour="125.452" />
    <flow id="flow_SR_1_5" type="heterogeneous_traffic_sw" route="route_se" begin="580" end="725" vehsPerHour="113.54199999999999" />
    <flow id="flow_SL_1_5" type="heterogeneous_traffic_sw" route="route_sw" begin="580" end="725" vehsPerHour="158.006" />
    <flow id="flow_WS_1_6" type="heterogeneous_traffic_nw" route="route_we" begin="725" end="870" vehsPerHour="333.476" />
    <flow id="flow_WR_1_6" type="heterogeneous_traffic_nw" route="route_wn" begin="725" end="870" vehsPerHour="119.548" />
    <flow id="flow_WL_1_6" type="heterogeneous_traffic_nw" route="route_ws" begin="725" end="870" vehsPerHour="30.976" />
    <flow id="flow_NS_1_6" type="heterogeneous_traffic_ns" route="route_ns" begin="725" end="870" vehsPerHour="103.92750000000001" />
    <flow id="flow_NR_1_6" type="heterogeneous_traffic_ns" route="route_nw" begin="725" end="870" vehsPerHour="46.7115" />
    <flow id="flow_NL_1_6" type="heterogeneous_traffic_ns" route="route_ne" begin="725" end="870" vehsPerHour="72.861" />
    <flow id="flow_ES_1_6" type="heterogeneous_traffic_ne" route="route_ew" begin="725" end="870" vehsPerHour="468.8285" />
    <flow id="flow_ER_1_6" type="heterogeneous_traffic_ne" route="route_es" begin="725" end="870" vehsPerHour="28.161" />
    <flow id="flow_EL_1_6" type="heterogeneous_traffic_ne" route="route_en" begin="725" end="870" vehsPerHour="24.5105" />
    <flow id="flow_SS_1_6" type="heterogeneous_traffic_sw" route="route_sn" begin="725" end="870" vehsPerHour="102.068" />
    <flow id="flow_SR_1_6" type="heterogeneous_traffic_sw" route="route_se" begin="725" end="870" vehsPerHour="92.37799999999999" />
    <flow id="flow_SL_1_6" type="heterogeneous_traffic_sw" route="route_sw" begin="725" end="870" vehsPerHour="128.554" />
    <flow id="flow_WS_1_7" type="heterogeneous_traffic_nw" route="route_we" begin="870" end="1015" vehsPerHour="487.4675" />
    <flow id="flow_WR_1_7" type="heterogeneous_traffic_nw" route="route_wn" begin="870" end="1015" vehsPerHour="174.7525" />
    <flow id="flow_WL_1_7" type="heterogeneous_traffic_nw" route="route_ws" begin="870" end="1015" vehsPerHour="45.28" />
    <flow id="flow_NS_1_7" type="heterogeneous_traffic_ns" route="route_ns" begin="870" end="1015" vehsPerHour="69.285" />
    <flow id="flow_NR_1_7" type="heterogeneous_traffic_ns" route="route_nw" begin="870" end="1015" vehsPerHour="31.141" />
    <flow id="flow_NL_1_7" type="heterogeneous_traffic_ns" route="route_ne" begin="870" end="1015" vehsPerHour="48.574000000000005" />
    <flow id="flow_ES_1_7" type="heterogeneous_traffic_ne" route="route_ew" begin="870" end="1015" vehsPerHour="547.0415" />
    <flow id="flow_ER_1_7" type="heterogeneous_traffic_ne" route="route_es" begin="870" end="1015" vehsPerHour="32.859" />
    <flow id="flow_EL_1_7" type="heterogeneous_traffic_ne" route="route_en" begin="870" end="1015" vehsPerHour="28.5995" />
    <flow id="flow_SS_1_7" type="heterogeneous_traffic_sw" route="route_sn" begin="870" end="1015" vehsPerHour="156.894" />
    <flow id="flow_SR_1_7" type="heterogeneous_traffic_sw" route="route_se" begin="870" end="1015" vehsPerHour="141.999" />
    <flow id="flow_SL_1_7" type="heterogeneous_traffic_sw" route="route_sw" begin="870" end="1015" vehsPerHour="197.607" />
    <flow id="flow_WS_1_8" type="heterogeneous_traffic_nw" route="route_we" begin="1015" end="1160" vehsPerHour="427.5245" />
    <flow id="flow_WR_1_8" type="heterogeneous_traffic_nw" route="route_wn" begin="1015" end="1160" vehsPerHour="153.2635" />
    <flow id="flow_WL_1_8" type="heterogeneous_traffic_nw" route="route_ws" begin="1015" end="1160" vehsPerHour="39.712" />
    <flow id="flow_NS_1_8" type="heterogeneous_traffic_ns" route="route_ns" begin="1015" end="1160" vehsPerHour="109.74000000000001" />
    <flow id="flow_NR_1_8" type="heterogeneous_traffic_ns" route="route_nw" begin="1015" end="1160" vehsPerHour="49.324" />
    <flow id="flow_NL_1_8" type="heterogeneous_traffic_ns" route="route_ne" begin="1015" end="1160" vehsPerHour="76.936" />
    <flow id="flow_ES_1_8" type="heterogeneous_traffic_ne" route="route_ew" begin="1015" end="1160" vehsPerHour="513.3290000000001" />
    <flow id="flow_ER_1_8" type="heterogeneous_traffic_ne" route="route_es" begin="1015" end="1160" vehsPerHour="30.834" />
    <flow id="flow_EL_1_8" type="heterogeneous_traffic_ne" route="route_en" begin="1015" end="1160" vehsPerHour="26.837" />
    <flow id="flow_SS_1_8" type="heterogeneous_traffic_sw" route="route_sn" begin="1015" end="1160" vehsPerHour="117.71000000000001" />
    <flow id="flow_SR_1_8" type="heterogeneous_traffic_sw" route="route_se" begin="1015" end="1160" vehsPerHour="106.535" />
    <flow id="flow_SL_1_8" type="heterogeneous_traffic_sw" route="route_sw" begin="1015" end="1160" vehsPerHour="148.255" />
    <flow id="flow_WS_1_9" type="heterogeneous_traffic_nw" route="route_we" begin="1160" end="1305" vehsPerHour="350.70099999999996" />
    <flow id="flow_WR_1_9" type="heterogeneous_traffic_nw" route="route_wn" begin="1160" end="1305" vehsPerHour="125.723" />
    <flow id="flow_WL_1_9" type="heterogeneous_traffic_nw" route="route_ws" begin="1160" end="1305" vehsPerHour="32.576" />
    <flow id="flow_NS_1_9" type="heterogeneous_traffic_ns" route="route_ns" begin="1160" end="1305" vehsPerHour="63.472500000000004" />
    <flow id="flow_NR_1_9" type="heterogeneous_traffic_ns" route="route_nw" begin="1160" end="1305" vehsPerHour="28.528499999999998" />
    <flow id="flow_NL_1_9" type="heterogeneous_traffic_ns" route="route_ne" begin="1160" end="1305" vehsPerHour="44.499" />
    <flow id="flow_ES_1_9" type="heterogeneous_traffic_ne" route="route_ew" begin="1160" end="1305" vehsPerHour="301.165" />
    <flow id="flow_ER_1_9" type="heterogeneous_traffic_ne" route="route_es" begin="1160" end="1305" vehsPerHour="18.09" />
    <flow id="flow_EL_1_9" type="heterogeneous_traffic_ne" route="route_en" begin="1160" end="1305" vehsPerHour="15.745" />
    <flow id="flow_SS_1_9" type="heterogeneous_traffic_sw" route="route_sn" begin="1160" end="1305" vehsPerHour="148.994" />
    <flow id="flow_SR_1_9" type="heterogeneous_traffic_sw" route="route_se" begin="1160" end="1305" vehsPerHour="134.849" />
    <flow id="flow_SL_1_9" type="heterogeneous_traffic_sw" route="route_sw" begin="1160" end="1305" vehsPerHour="187.657" />
    <flow id="flow_WS_1_10" type="heterogeneous_traffic_nw" route="route_we" begin="1305" end="1450" vehsPerHour="333.476" />
    <flow id="flow_WR_1_10" type="heterogeneous_traffic_nw" route="route_wn" begin="1305" end="1450" vehsPerHour="119.548" />
    <flow id="flow_WL_1_10" type="heterogeneous_traffic_nw" route="route_ws" begin="1305" end="1450" vehsPerHour="30.976" />
    <flow id="flow_NS_1_10" type="heterogeneous_traffic_ns" route="route_ns" begin="1305" end="1450" vehsPerHour="92.30250000000001" />
    <flow id="flow_NR_1_10" type="heterogeneous_traffic_ns" route="route_nw" begin="1305" end="1450" vehsPerHour="41.4865" />
    <flow id="flow_NL_1_10" type="heterogeneous_traffic_ns" route="route_ne" begin="1305" end="1450" vehsPerHour="64.711" />
    <flow id="flow_ES_1_10" type="heterogeneous_traffic_ne" route="route_ew" begin="1305" end="1450" vehsPerHour="557.8295" />
    <flow id="flow_ER_1_10" type="heterogeneous_traffic_ne" route="route_es" begin="1305" end="1450" vehsPerHour="33.507" />
    <flow id="flow_EL_1_10" type="heterogeneous_traffic_ne" route="route_en" begin="1305" end="1450" vehsPerHour="29.1635" />
    <flow id="flow_SS_1_10" type="heterogeneous_traffic_sw" route="route_sn" begin="1305" end="1450" vehsPerHour="109.81" />
    <flow id="flow_SR_1_10" type="heterogeneous_traffic_sw" route="route_se" begin="1305" end="1450" vehsPerHour="99.38499999999999" />
    <flow id="flow_SL_1_10" type="heterogeneous_traffic_sw" route="route_sw" begin="1305" end="1450" vehsPerHour="138.305" />
    <flow id="flow_WS_2_1" type="heterogeneous_traffic_nw" route="route_we" begin="1450" end="1595" vehsPerHour="436.13699999999994" />
    <flow id="flow_WR_2_1" type="heterogeneous_traffic_nw" route="route_wn" begin="1450" end="1595" vehsPerHour="156.351" />
    <flow id="flow_WL_2_1" type="heterogeneous_traffic_nw" route="route_ws" begin="1450" end="1595" vehsPerHour="40.512" />
    <flow id="flow_NS_2_1" type="heterogeneous_traffic_ns" route="route_ns" begin="1450" end="1595" vehsPerHour="121.13250000000001" />
    <flow id="flow_NR_2_1" type="heterogeneous_traffic_ns" route="route_nw" begin="1450" end="1595" vehsPerHour="54.4445" />
    <flow id="flow_NL_2_1" type="heterogeneous_traffic_ns" route="route_ne" begin="1450" end="1595" vehsPerHour="84.923" />
    <flow id="flow_ES_2_1" type="heterogeneous_traffic_ne" route="route_ew" begin="1450" end="1595" vehsPerHour="356.903" />
    <flow id="flow_ER_2_1" type="heterogeneous_traffic_ne" route="route_es" begin="1450" end="1595" vehsPerHour="21.438" />
    <flow id="flow_EL_2_1" type="heterogeneous_traffic_ne" route="route_en" begin="1450" end="1595" vehsPerHour="18.659" />
    <flow id="flow_SS_2_1" type="heterogeneous_traffic_sw" route="route_sn" begin="1450" end="1595" vehsPerHour="164.794" />
    <flow id="flow_SR_2_1" type="heterogeneous_traffic_sw" route="route_se" begin="1450" end="1595" vehsPerHour="149.149" />
    <flow id="flow_SL_2_1" type="heterogeneous_traffic_sw" route="route_sw" begin="1450" end="1595" vehsPerHour="207.55700000000002" />
    <flow id="flow_WS_2_2" type="heterogeneous_traffic_nw" route="route_we" begin="1595" end="1740" vehsPerHour="376.19399999999996" />
    <flow id="flow_WR_2_2" type="heterogeneous_traffic_nw" route="route_wn" begin="1595" end="1740" vehsPerHour="134.862" />
    <flow id="flow_WL_2_2" type="heterogeneous_traffic_nw" route="route_ws" begin="1595" end="1740" vehsPerHour="34.944" />
    <flow id="flow_NS_2_2" type="heterogeneous_traffic_ns" route="route_ns" begin="1595" end="1740" vehsPerHour="144.38250000000002" />
    <flow id="flow_NR_2_2" type="heterogeneous_traffic_ns" route="route_nw" begin="1595" end="1740" vehsPerHour="64.8945" />
    <flow id="flow_NL_2_2" type="heterogeneous_traffic_ns" route="route_ne" begin="1595" end="1740" vehsPerHour="101.223" />
    <flow id="flow_ES_2_2" type="heterogeneous_traffic_ne" route="route_ew" begin="1595" end="1740" vehsPerHour="490.854" />
    <flow id="flow_ER_2_2" type="heterogeneous_traffic_ne" route="route_es" begin="1595" end="1740" vehsPerHour="29.483999999999998" />
    <flow id="flow_EL_2_2" type="heterogeneous_traffic_ne" route="route_en" begin="1595" end="1740" vehsPerHour="25.662" />
    <flow id="flow_SS_2_2" type="heterogeneous_traffic_sw" route="route_sn" begin="1595" end="1740" vehsPerHour="94.168" />
    <flow id="flow_SR_2_2" type="heterogeneous_traffic_sw" route="route_se" begin="1595" end="1740" vehsPerHour="85.228" />
    <flow id="flow_SL_2_2" type="heterogeneous_traffic_sw" route="route_sw" begin="1595" end="1740" vehsPerHour="118.604" />
    <flow id="flow_WS_2_3" type="heterogeneous_traffic_nw" route="route_we" begin="1740" end="1885" vehsPerHour="299.3705" />
    <flow id="flow_WR_2_3" type="heterogeneous_traffic_nw" route="route_wn" begin="1740" end="1885" vehsPerHour="107.3215" />
    <flow id="flow_WL_2_3" type="heterogeneous_traffic_nw" route="route_ws" begin="1740" end="1885" vehsPerHour="27.808" />
    <flow id="flow_NS_2_3" type="heterogeneous_traffic_ns" route="route_ns" begin="1740" end="1885" vehsPerHour="98.11500000000001" />
    <flow id="flow_NR_2_3" type="heterogeneous_traffic_ns" route="route_nw" begin="1740" end="1885" vehsPerHour="44.099" />
    <flow id="flow_NL_2_3" type="heterogeneous_traffic_ns" route="route_ne" begin="1740" end="1885" vehsPerHour="68.786" />
    <flow id="flow_ES_2_3" type="heterogeneous_traffic_ne" route="route_ew" begin="1740" end="1885" vehsPerHour="323.64" />
    <flow id="flow_ER_2_3" type="heterogeneous_traffic_ne" route="route_es" begin="1740" end="1885" vehsPerHour="19.44" />
    <flow id="flow_EL_2_3" type="heterogeneous_traffic_ne" route="route_en" begin="1740" end="1885" vehsPerHour="16.92" />
    <flow id="flow_SS_2_3" type="heterogeneous_traffic_sw" route="route_sn" begin="1740" end="1885" vehsPerHour="164.794" />
    <flow id="flow_SR_2_3" type="heterogeneous_traffic_sw" route="route_se" begin="1740" end="1885" vehsPerHour="149.149" />
    <flow id="flow_SL_2_3" type="heterogeneous_traffic_sw" route="route_sw" begin="1740" end="1885" vehsPerHour="207.55700000000002" />
    <flow id="flow_WS_2_4" type="heterogeneous_traffic_nw" route="route_we" begin="1885" end="2030" vehsPerHour="188.09699999999998" />
    <flow id="flow_WR_2_4" type="heterogeneous_traffic_nw" route="route_wn" begin="1885" end="2030" vehsPerHour="67.431" />
    <flow id="flow_WL_2_4" type="heterogeneous_traffic_nw" route="route_ws" begin="1885" end="2030" vehsPerHour="17.472" />
    <flow id="flow_NS_2_4" type="heterogeneous_traffic_ns" route="route_ns" begin="1885" end="2030" vehsPerHour="103.92750000000001" />
    <flow id="flow_NR_2_4" type="heterogeneous_traffic_ns" route="route_nw" begin="1885" end="2030" vehsPerHour="46.7115" />
    <flow id="flow_NL_2_4" type="heterogeneous_traffic_ns" route="route_ne" begin="1885" end="2030" vehsPerHour="72.861" />
    <flow id="flow_ES_2_4" type="heterogeneous_traffic_ne" route="route_ew" begin="1885" end="2030" vehsPerHour="457.591" />
    <flow id="flow_ER_2_4" type="heterogeneous_traffic_ne" route="route_es" begin="1885" end="2030" vehsPerHour="27.486" />
    <flow id="flow_EL_2_4" type="heterogeneous_traffic_ne" route="route_en" begin="1885" end="2030" vehsPerHour="23.923000000000002" />
    <flow id="flow_SS_2_4" type="heterogeneous_traffic_sw" route="route_sn" begin="1885" end="2030" vehsPerHour="145.202" />
    <flow id="flow_SR_2_4" type="heterogeneous_traffic_sw" route="route_se" begin="1885" end="2030" vehsPerHour="131.417" />
    <flow id="flow_SL_2_4" type="heterogeneous_traffic_sw" route="route_sw" begin="1885" end="2030" vehsPerHour="182.881" />
    <flow id="flow_WS_2_5" type="heterogeneous_traffic_nw" route="route_we" begin="2030" end="2175" vehsPerHour="402.0315" />
    <flow id="flow_WR_2_5" type="heterogeneous_traffic_nw" route="route_wn" begin="2030" end="2175" vehsPerHour="144.1245" />
    <flow id="flow_WL_2_5" type="heterogeneous_traffic_nw" route="route_ws" begin="2030" end="2175" vehsPerHour="37.344" />
    <flow id="flow_NS_2_5" type="heterogeneous_traffic_ns" route="route_ns" begin="2030" end="2175" vehsPerHour="109.74000000000001" />
    <flow id="flow_NR_2_5" type="heterogeneous_traffic_ns" route="route_nw" begin="2030" end="2175" vehsPerHour="49.324" />
    <flow id="flow_NL_2_5" type="heterogeneous_traffic_ns" route="route_ne" begin="2030" end="2175" vehsPerHour="76.936" />
    <flow id="flow_ES_2_5" type="heterogeneous_traffic_ne" route="route_ew" begin="2030" end="2175" vehsPerHour="490.854" />
    <flow id="flow_ER_2_5" type="heterogeneous_traffic_ne" route="route_es" begin="2030" end="2175" vehsPerHour="29.483999999999998" />
    <flow id="flow_EL_2_5" type="heterogeneous_traffic_ne" route="route_en" begin="2030" end="2175" vehsPerHour="25.662" />
    <flow id="flow_SS_2_5" type="heterogeneous_traffic_sw" route="route_sn" begin="2030" end="2175" vehsPerHour="125.452" />
    <flow id="flow_SR_2_5" type="heterogeneous_traffic_sw" route="route_se" begin="2030" end="2175" vehsPerHour="113.54199999999999" />
    <flow id="flow_SL_2_5" type="heterogeneous_traffic_sw" route="route_sw" begin="2030" end="2175" vehsPerHour="158.006" />
    <flow id="flow_WS_2_6" type="heterogeneous_traffic_nw" route="route_we" begin="2175" end="2320" vehsPerHour="333.476" />
    <flow id="flow_WR_2_6" type="heterogeneous_traffic_nw" route="route_wn" begin="2175" end="2320" vehsPerHour="119.548" />
    <flow id="flow_WL_2_6" type="heterogeneous_traffic_nw" route="route_ws" begin="2175" end="2320" vehsPerHour="30.976" />
    <flow id="flow_NS_2_6" type="heterogeneous_traffic_ns" route="route_ns" begin="2175" end="2320" vehsPerHour="103.92750000000001" />
    <flow id="flow_NR_2_6" type="heterogeneous_traffic_ns" route="route_nw" begin="2175" end="2320" vehsPerHour="46.7115" />
    <flow id="flow_NL_2_6" type="heterogeneous_traffic_ns" route="route_ne" begin="2175" end="2320" vehsPerHour="72.861" />
    <flow id="flow_ES_2_6" type="heterogeneous_traffic_ne" route="route_ew" begin="2175" end="2320" vehsPerHour="468.8285" />
    <flow id="flow_ER_2_6" type="heterogeneous_traffic_ne" route="route_es" begin="2175" end="2320" vehsPerHour="28.161" />
    <flow id="flow_EL_2_6" type="heterogeneous_traffic_ne" route="route_en" begin="2175" end="2320" vehsPerHour="24.5105" />
    <flow id="flow_SS_2_6" type="heterogeneous_traffic_sw" route="route_sn" begin="2175" end="2320" vehsPerHour="102.068" />
    <flow id="flow_SR_2_6" type="heterogeneous_traffic_sw" route="route_se" begin="2175" end="2320" vehsPerHour="92.37799999999999" />
    <flow id="flow_SL_2_6" type="heterogeneous_traffic_sw" route="route_sw" begin="2175" end="2320" vehsPerHour="128.554" />
    <flow id="flow_WS_2_7" type="heterogeneous_traffic_nw" route="route_we" begin="2320" end="2465" vehsPerHour="487.4675" />
    <flow id="flow_WR_2_7" type="heterogeneous_traffic_nw" route="route_wn" begin="2320" end="2465" vehsPerHour="174.7525" />
    <flow id="flow_WL_2_7" type="heterogeneous_traffic_nw" route="route_ws" begin="2320" end="2465" vehsPerHour="45.28" />
    <flow id="flow_NS_2_7" type="heterogeneous_traffic_ns" route="route_ns" begin="2320" end="2465" vehsPerHour="69.285" />
    <flow id="flow_NR_2_7" type="heterogeneous_traffic_ns" route="route_nw" begin="2320" end="2465" vehsPerHour="31.141" />
    <flow id="flow_NL_2_7" type="heterogeneous_traffic_ns" route="route_ne" begin="2320" end="2465" vehsPerHour="48.574000000000005" />
    <flow id="flow_ES_2_7" type="heterogeneous_traffic_ne" route="route_ew" begin="2320" end="2465" vehsPerHour="547.0415" />
    <flow id="flow_ER_2_7" type="heterogeneous_traffic_ne" route="route_es" begin="2320" end="2465" vehsPerHour="32.859" />
    <flow id="flow_EL_2_7" type="heterogeneous_traffic_ne" route="route_en" begin="2320" end="2465" vehsPerHour="28.5995" />
    <flow id="flow_SS_2_7" type="heterogeneous_traffic_sw" route="route_sn" begin="2320" end="2465" vehsPerHour="156.894" />
    <flow id="flow_SR_2_7" type="heterogeneous_traffic_sw" route="route_se" begin="2320" end="2465" vehsPerHour="141.999" />
    <flow id="flow_SL_2_7" type="heterogeneous_traffic_sw" route="route_sw" begin="2320" end="2465" vehsPerHour="197.607" />
    <flow id="flow_WS_2_8" type="heterogeneous_traffic_nw" route="route_we" begin="2465" end="2610" vehsPerHour="427.5245" />
    <flow id="flow_WR_2_8" type="heterogeneous_traffic_nw" route="route_wn" begin="2465" end="2610" vehsPerHour="153.2635" />
    <flow id="flow_WL_2_8" type="heterogeneous_traffic_nw" route="route_ws" begin="2465" end="2610" vehsPerHour="39.712" />
    <flow id="flow_NS_2_8" type="heterogeneous_traffic_ns" route="route_ns" begin="2465" end="2610" vehsPerHour="109.74000000000001" />
    <flow id="flow_NR_2_8" type="heterogeneous_traffic_ns" route="route_nw" begin="2465" end="2610" vehsPerHour="49.324" />
    <flow id="flow_NL_2_8" type="heterogeneous_traffic_ns" route="route_ne" begin="2465" end="2610" vehsPerHour="76.936" />
    <flow id="flow_ES_2_8" type="heterogeneous_traffic_ne" route="route_ew" begin="2465" end="2610" vehsPerHour="513.3290000000001" />
    <flow id="flow_ER_2_8" type="heterogeneous_traffic_ne" route="route_es" begin="2465" end="2610" vehsPerHour="30.834" />
    <flow id="flow_EL_2_8" type="heterogeneous_traffic_ne" route="route_en" begin="2465" end="2610" vehsPerHour="26.837" />
    <flow id="flow_SS_2_8" type="heterogeneous_traffic_sw" route="route_sn" begin="2465" end="2610" vehsPerHour="117.71000000000001" />
    <flow id="flow_SR_2_8" type="heterogeneous_traffic_sw" route="route_se" begin="2465" end="2610" vehsPerHour="106.535" />
    <flow id="flow_SL_2_8" type="heterogeneous_traffic_sw" route="route_sw" begin="2465" end="2610" vehsPerHour="148.255" />
    <flow id="flow_WS_2_9" type="heterogeneous_traffic_nw" route="route_we" begin="2610" end="2755" vehsPerHour="350.70099999999996" />
    <flow id="flow_WR_2_9" type="heterogeneous_traffic_nw" route="route_wn" begin="2610" end="2755" vehsPerHour="125.723" />
    <flow id="flow_WL_2_9" type="heterogeneous_traffic_nw" route="route_ws" begin="2610" end="2755" vehsPerHour="32.576" />
    <flow id="flow_NS_2_9" type="heterogeneous_traffic_ns" route="route_ns" begin="2610" end="2755" vehsPerHour="63.472500000000004" />
    <flow id="flow_NR_2_9" type="heterogeneous_traffic_ns" route="route_nw" begin="2610" end="2755" vehsPerHour="28.528499999999998" />
    <flow id="flow_NL_2_9" type="heterogeneous_traffic_ns" route="route_ne" begin="2610" end="2755" vehsPerHour="44.499" />